Version 4
SHEET 1 880 680
WIRE 352 176 352 144
WIRE 112 192 32 192
WIRE 272 192 192 192
WIRE 320 192 272 192
WIRE 432 208 384 208
WIRE 320 224 240 224
WIRE 32 256 32 192
WIRE 352 272 352 240
WIRE -256 288 -256 240
WIRE -144 288 -256 288
WIRE -144 304 -144 288
WIRE -256 336 -256 288
WIRE 240 368 240 224
WIRE 288 368 240 368
WIRE 432 368 432 208
WIRE 432 368 368 368
WIRE 32 384 32 336
WIRE 240 432 240 368
WIRE 240 560 240 512
FLAG -144 304 0
FLAG -256 160 +9
FLAG -256 416 -9
FLAG 352 144 -9
FLAG 352 272 +9
FLAG 240 560 0
FLAG 32 384 0
FLAG 272 192 Ve
FLAG 432 208 Vs1
SYMBOL voltage -256 144 R0
WINDOW 123 0 0 Left 0
WINDOW 39 0 0 Left 0
SYMATTR InstName V1
SYMATTR Value 9
SYMBOL voltage -256 320 R0
WINDOW 123 0 0 Left 0
WINDOW 39 0 0 Left 0
SYMATTR InstName V2
SYMATTR Value 9
SYMBOL OpAmps\\UniversalOpAmp 352 208 M180
SYMATTR InstName U1
SYMATTR Value2 Avol=1Meg GBW=1Meg Vos=0
SYMBOL res 224 416 R0
WINDOW 3 38 79 Left 2
SYMATTR Value 1k
SYMATTR InstName R1
SYMBOL res 384 352 R90
WINDOW 0 0 56 VBottom 2
WINDOW 3 32 56 VTop 2
SYMATTR InstName R2
SYMATTR Value 1000k
SYMBOL res 96 208 R270
WINDOW 0 32 56 VTop 2
WINDOW 3 0 56 VBottom 2
SYMATTR InstName R3
SYMATTR Value 600
SYMBOL voltage 32 240 R0
WINDOW 123 24 124 Left 2
WINDOW 39 0 0 Left 0
SYMATTR Value2 AC 1
SYMATTR InstName Vsensor
SYMATTR Value SINE(0 2.5m 1k)
TEXT -288 584 Left 2 !.tran 5m
